LTspice 24.0.12 for Windows
Circuit: * C:\Users\joopt\OneDrive\motor\rsv mille\tuning\logger\diy-afr-tuning\electronics\rpm-sensor.asc
Start Time: Sun May 19 10:33:55 2024
Warning: Multiple definitions of model "2scr375p" Type: BJT
Warning: Multiple definitions of model "bc857b" Type: BJT
Warning: Multiple definitions of model "bc847c" Type: BJT
Warning: Multiple definitions of model "bc847b" Type: BJT
solver = Normal
Maximum thread count: 8
tnom = 27
temp = 27
method = modified trap
Direct Newton iteration for .op point succeeded.
Total elapsed time: 0.337 seconds.

